LTspice 24.1.0 for Windows
Circuit: C:\Users\thoma\OneDrive - University of Central Florida\Desktop\Draft3.net
Start Time: Sun Dec 14 00:59:20 2025
solver = Normal
Maximum thread count: 16
tnom = 27
temp = 27
method = modified trap
Direct Newton iteration for .op point succeeded.
Total elapsed time: 0.134 seconds.

Files loaded:
C:\Users\thoma\OneDrive - University of Central Florida\Desktop\Draft3.net
C:\Users\thoma\AppData\Local\LTspice\lib\sub\LTC.lib

